Circuit: * F:\Desktop Backup\Desktop\LT_py\Sec7-3 Project overview\Project_2nd_LPF_TRAN.asc

.OP point found by inspection.

Date: Thu Dec 14 15:08:52 2023
Total elapsed time: 0.074 seconds.

tnom = 27
temp = 27
method = modified trap
totiter = 2092
traniter = 2092
tranpoints = 1047
accept = 1046
rejected = 1
matrix size = 4
fillins = 0
solver = Normal
Avg thread counts: 1.6/2.2/2.2/1.6
Matrix Compiler1: 118 bytes object code size  0.3/0.4/[0.4]
Matrix Compiler2: off  [0.2]/0.3/0.3

