Circuit: * F:\Desktop Backup\Desktop\LT_py\Sec7-3 Project overview\Project_2nd_LPF_TRAN.asc

.OP point found by inspection.

Date: Thu Dec 14 15:08:38 2023
Total elapsed time: 0.051 seconds.

tnom = 27
temp = 27
method = modified trap
totiter = 2102
traniter = 2102
tranpoints = 1052
accept = 1051
rejected = 1
matrix size = 4
fillins = 0
solver = Normal
Avg thread counts: 1.6/2.2/2.2/1.6
Matrix Compiler1:       6 opcodes  0.1/[0.1]/0.2
Matrix Compiler2: off  [0.1]/0.1/0.2

