Circuit: * F:\Desktop Backup\Desktop\LT_py\Sec7-3 Project overview\Project_2nd_LPF_TRAN.asc

.OP point found by inspection.

Date: Thu Dec 14 15:08:48 2023
Total elapsed time: 0.072 seconds.

tnom = 27
temp = 27
method = modified trap
totiter = 2098
traniter = 2098
tranpoints = 1050
accept = 1049
rejected = 1
matrix size = 4
fillins = 0
solver = Normal
Avg thread counts: 1.6/2.2/2.2/1.6
Matrix Compiler1: 118 bytes object code size  0.3/0.3/[0.2]
Matrix Compiler2: 248 bytes object code size  0.2/0.3/[0.1]

